/*--------------------------------*- C++ -*----------------------------------*\
| =========                 |                                                 |
| \\      /  F ield         | OpenFOAM: The Open Source CFD Toolbox           |
|  \\    /   O peration     | Version:  2212                                  |
|   \\  /    A nd           | Website:  www.openfoam.com                      |
|    \\/     M anipulation  |                                                 |
\*---------------------------------------------------------------------------*/
FoamFile
{
    version     2.0;
    format      ascii;
    arch        "LSB;label=32;scalar=64";
    class       dictionary;
    location    "constant/polyMesh";
    object      meshMetaDict;
}
// * * * * * * * * * * * * * * * * * * * * * * * * * * * * * * * * * * * * * //

surfaceFile     "Clone_Geometry.fms";

surfaceMeta
{
    nPoints         14422;
    nFacets         28790;
    nPatches        3;
    nFeatureEdges   840;
    patches
    {
        patch_1_0
        {
            type            empty;
            nFacets         98;
        }
        patch_2_0
        {
            type            empty;
            nFacets         146;
        }
        patch_3_0
        {
            type            empty;
            nFacets         28546;
        }
    }
    pointSubsets
    {
    }
    facetSubsets
    {
    }
    featureEdgeSubsets
    {
    }
}
