/*--------------------------------*- C++ -*----------------------------------*\
|                                                                             |
|                Generated by the CfdOF workbench for FreeCAD                 |
|                      https://github.com/jaheyns/CfdOF                       |
|                                                                             |
\*---------------------------------------------------------------------------*/
FoamFile
{
    version     2.0;
    format      ascii;
    class       dictionary;
    object      fvOptions;
}
// * * * * * * * * * * * * * * * * * * * * * * * * * * * * * * * * * * * * * //

Cylinder
{
    type            explicitPorositySource;
    active          yes;

    explicitPorositySourceCoeffs
    {
        selectionMode   cellZone;
        cellZone        Clone001;

        type            DarcyForchheimer;

        DarcyForchheimerCoeffs
        {
            d   d [0 -2 0 0 0 0 0] (237584700.0 237584700.0 237584700.0);
            f   f [0 -1 0 0 0 0 0] (5867.265 5867.265 5867.265);

            coordinateSystem
            {
                type    cartesian;
                origin  (0 0 0);
                coordinateRotation
                {
                    type    axesRotation;
                    e1      (1.0 0.0 0.0);
                    e3      (0.0 0.0 1.0);
                }
            }
        }
    }
}


//************************************************************************ //
